2

Si      0.000000000000000      0.000000000000000      0.000000000000000
Si      0.000000000000000      0.000000000000000      4.434343430000000
2

Si      0.000000000000000      0.000000000000000      0.000000000000000
Si      0.000000000000000      0.000000000000000      3.373737370000000
2

Si      0.000000000000000      0.000000000000000      0.000000000000000
Si      0.000000000000000      0.000000000000000      3.974747470000000
2

Si      0.000000000000000      0.000000000000000      0.000000000000000
Si      0.000000000000000      0.000000000000000      3.090909090000000
2

Si      0.000000000000000      0.000000000000000      0.000000000000000
Si      0.000000000000000      0.000000000000000      3.055555560000000
2

Si      0.000000000000000      0.000000000000000      0.000000000000000
Si      0.000000000000000      0.000000000000000      2.878787880000000
2

Si      0.000000000000000      0.000000000000000      0.000000000000000
Si      0.000000000000000      0.000000000000000      2.277777780000000
2

Si      0.000000000000000      0.000000000000000      0.000000000000000
Si      0.000000000000000      0.000000000000000      4.328282830000000
2

Si      0.000000000000000      0.000000000000000      0.000000000000000
Si      0.000000000000000      0.000000000000000      1.853535350000000
2

Si      0.000000000000000      0.000000000000000      0.000000000000000
Si      0.000000000000000      0.000000000000000      1.500000000000000
2

Si      0.000000000000000      0.000000000000000      0.000000000000000
Si      0.000000000000000      0.000000000000000      2.136363640000000
2

Si      0.000000000000000      0.000000000000000      0.000000000000000
Si      0.000000000000000      0.000000000000000      2.560606060000000
2

Si      0.000000000000000      0.000000000000000      0.000000000000000
Si      0.000000000000000      0.000000000000000      4.080808080000000
2

Si      0.000000000000000      0.000000000000000      0.000000000000000
Si      0.000000000000000      0.000000000000000      2.666666670000000
2

Si      0.000000000000000      0.000000000000000      0.000000000000000
Si      0.000000000000000      0.000000000000000      4.681818180000000
2

Si      0.000000000000000      0.000000000000000      0.000000000000000
Si      0.000000000000000      0.000000000000000      1.641414140000000
2

Si      0.000000000000000      0.000000000000000      0.000000000000000
Si      0.000000000000000      0.000000000000000      4.186868690000000
2

Si      0.000000000000000      0.000000000000000      0.000000000000000
Si      0.000000000000000      0.000000000000000      4.222222220000000
2

Si      0.000000000000000      0.000000000000000      0.000000000000000
Si      0.000000000000000      0.000000000000000      1.924242420000000
2

Si      0.000000000000000      0.000000000000000      0.000000000000000
Si      0.000000000000000      0.000000000000000      2.595959600000000
2

Si      0.000000000000000      0.000000000000000      0.000000000000000
Si      0.000000000000000      0.000000000000000      3.444444440000000
2

Si      0.000000000000000      0.000000000000000      0.000000000000000
Si      0.000000000000000      0.000000000000000      4.611111110000000
2

Si      0.000000000000000      0.000000000000000      0.000000000000000
Si      0.000000000000000      0.000000000000000      2.419191920000000
2

Si      0.000000000000000      0.000000000000000      0.000000000000000
Si      0.000000000000000      0.000000000000000      2.984848480000000
2

Si      0.000000000000000      0.000000000000000      0.000000000000000
Si      0.000000000000000      0.000000000000000      3.939393940000000
2

Si      0.000000000000000      0.000000000000000      0.000000000000000
Si      0.000000000000000      0.000000000000000      2.030303030000000
2

Si      0.000000000000000      0.000000000000000      0.000000000000000
Si      0.000000000000000      0.000000000000000      2.914141410000000
2

Si      0.000000000000000      0.000000000000000      0.000000000000000
Si      0.000000000000000      0.000000000000000      4.893939390000000
2

Si      0.000000000000000      0.000000000000000      0.000000000000000
Si      0.000000000000000      0.000000000000000      1.818181820000000
2

Si      0.000000000000000      0.000000000000000      0.000000000000000
Si      0.000000000000000      0.000000000000000      4.045454550000000
2

Si      0.000000000000000      0.000000000000000      0.000000000000000
Si      0.000000000000000      0.000000000000000      1.888888890000000
2

Si      0.000000000000000      0.000000000000000      0.000000000000000
Si      0.000000000000000      0.000000000000000      3.161616160000000
2

Si      0.000000000000000      0.000000000000000      0.000000000000000
Si      0.000000000000000      0.000000000000000      4.505050510000000
2

Si      0.000000000000000      0.000000000000000      0.000000000000000
Si      0.000000000000000      0.000000000000000      2.489898990000000
2

Si      0.000000000000000      0.000000000000000      0.000000000000000
Si      0.000000000000000      0.000000000000000      4.787878790000000
2

Si      0.000000000000000      0.000000000000000      0.000000000000000
Si      0.000000000000000      0.000000000000000      1.676767680000000
2

Si      0.000000000000000      0.000000000000000      0.000000000000000
Si      0.000000000000000      0.000000000000000      3.833333330000000
2

Si      0.000000000000000      0.000000000000000      0.000000000000000
Si      0.000000000000000      0.000000000000000      3.797979800000000
2

Si      0.000000000000000      0.000000000000000      0.000000000000000
Si      0.000000000000000      0.000000000000000      2.737373740000000
2

Si      0.000000000000000      0.000000000000000      0.000000000000000
Si      0.000000000000000      0.000000000000000      2.065656570000000
2

Si      0.000000000000000      0.000000000000000      0.000000000000000
Si      0.000000000000000      0.000000000000000      3.232323230000000
2

Si      0.000000000000000      0.000000000000000      0.000000000000000
Si      0.000000000000000      0.000000000000000      2.702020200000000
2

Si      0.000000000000000      0.000000000000000      0.000000000000000
Si      0.000000000000000      0.000000000000000      1.747474750000000
2

Si      0.000000000000000      0.000000000000000      0.000000000000000
Si      0.000000000000000      0.000000000000000      4.858585860000000
2

Si      0.000000000000000      0.000000000000000      0.000000000000000
Si      0.000000000000000      0.000000000000000      2.454545450000000
2

Si      0.000000000000000      0.000000000000000      0.000000000000000
Si      0.000000000000000      0.000000000000000      2.171717170000000
2

Si      0.000000000000000      0.000000000000000      0.000000000000000
Si      0.000000000000000      0.000000000000000      4.363636360000000
2

Si      0.000000000000000      0.000000000000000      0.000000000000000
Si      0.000000000000000      0.000000000000000      2.383838380000000
2

Si      0.000000000000000      0.000000000000000      0.000000000000000
Si      0.000000000000000      0.000000000000000      3.691919190000000
2

Si      0.000000000000000      0.000000000000000      0.000000000000000
Si      0.000000000000000      0.000000000000000      1.959595960000000
2

Si      0.000000000000000      0.000000000000000      0.000000000000000
Si      0.000000000000000      0.000000000000000      2.348484850000000
2

Si      0.000000000000000      0.000000000000000      0.000000000000000
Si      0.000000000000000      0.000000000000000      1.606060610000000
2

Si      0.000000000000000      0.000000000000000      0.000000000000000
Si      0.000000000000000      0.000000000000000      2.101010100000000
2

Si      0.000000000000000      0.000000000000000      0.000000000000000
Si      0.000000000000000      0.000000000000000      2.843434340000000
2

Si      0.000000000000000      0.000000000000000      0.000000000000000
Si      0.000000000000000      0.000000000000000      1.782828280000000
2

Si      0.000000000000000      0.000000000000000      0.000000000000000
Si      0.000000000000000      0.000000000000000      4.257575760000000
2

Si      0.000000000000000      0.000000000000000      0.000000000000000
Si      0.000000000000000      0.000000000000000      1.712121210000000
2

Si      0.000000000000000      0.000000000000000      0.000000000000000
Si      0.000000000000000      0.000000000000000      3.762626260000000
2

Si      0.000000000000000      0.000000000000000      0.000000000000000
Si      0.000000000000000      0.000000000000000      2.772727270000000
2

Si      0.000000000000000      0.000000000000000      0.000000000000000
Si      0.000000000000000      0.000000000000000      4.646464650000000
2

Si      0.000000000000000      0.000000000000000      0.000000000000000
Si      0.000000000000000      0.000000000000000      3.479797980000000
2

Si      0.000000000000000      0.000000000000000      0.000000000000000
Si      0.000000000000000      0.000000000000000      5.000000000000000
2

Si      0.000000000000000      0.000000000000000      0.000000000000000
Si      0.000000000000000      0.000000000000000      3.409090910000000
2

Si      0.000000000000000      0.000000000000000      0.000000000000000
Si      0.000000000000000      0.000000000000000      3.020202020000000
2

Si      0.000000000000000      0.000000000000000      0.000000000000000
Si      0.000000000000000      0.000000000000000      3.267676770000000
2

Si      0.000000000000000      0.000000000000000      0.000000000000000
Si      0.000000000000000      0.000000000000000      3.868686870000000
2

Si      0.000000000000000      0.000000000000000      0.000000000000000
Si      0.000000000000000      0.000000000000000      3.126262630000000
2

Si      0.000000000000000      0.000000000000000      0.000000000000000
Si      0.000000000000000      0.000000000000000      3.904040400000000
2

Si      0.000000000000000      0.000000000000000      0.000000000000000
Si      0.000000000000000      0.000000000000000      3.656565660000000
2

Si      0.000000000000000      0.000000000000000      0.000000000000000
Si      0.000000000000000      0.000000000000000      4.929292930000000
2

Si      0.000000000000000      0.000000000000000      0.000000000000000
Si      0.000000000000000      0.000000000000000      4.292929290000000
2

Si      0.000000000000000      0.000000000000000      0.000000000000000
Si      0.000000000000000      0.000000000000000      2.949494950000000
2

Si      0.000000000000000      0.000000000000000      0.000000000000000
Si      0.000000000000000      0.000000000000000      3.550505050000000
2

Si      0.000000000000000      0.000000000000000      0.000000000000000
Si      0.000000000000000      0.000000000000000      3.196969700000000
2

Si      0.000000000000000      0.000000000000000      0.000000000000000
Si      0.000000000000000      0.000000000000000      4.964646460000000
2

Si      0.000000000000000      0.000000000000000      0.000000000000000
Si      0.000000000000000      0.000000000000000      3.515151520000000
2

Si      0.000000000000000      0.000000000000000      0.000000000000000
Si      0.000000000000000      0.000000000000000      4.151515150000000
2

Si      0.000000000000000      0.000000000000000      0.000000000000000
Si      0.000000000000000      0.000000000000000      2.631313130000000
2

Si      0.000000000000000      0.000000000000000      0.000000000000000
Si      0.000000000000000      0.000000000000000      4.823232320000000
2

Si      0.000000000000000      0.000000000000000      0.000000000000000
Si      0.000000000000000      0.000000000000000      3.585858590000000
2

Si      0.000000000000000      0.000000000000000      0.000000000000000
Si      0.000000000000000      0.000000000000000      3.727272730000000
2

Si      0.000000000000000      0.000000000000000      0.000000000000000
Si      0.000000000000000      0.000000000000000      4.469696970000000
2

Si      0.000000000000000      0.000000000000000      0.000000000000000
Si      0.000000000000000      0.000000000000000      2.808080810000000
2

Si      0.000000000000000      0.000000000000000      0.000000000000000
Si      0.000000000000000      0.000000000000000      2.525252530000000
2

Si      0.000000000000000      0.000000000000000      0.000000000000000
Si      0.000000000000000      0.000000000000000      1.535353540000000
2

Si      0.000000000000000      0.000000000000000      0.000000000000000
Si      0.000000000000000      0.000000000000000      3.338383840000000
2

Si      0.000000000000000      0.000000000000000      0.000000000000000
Si      0.000000000000000      0.000000000000000      2.242424240000000
2

Si      0.000000000000000      0.000000000000000      0.000000000000000
Si      0.000000000000000      0.000000000000000      1.570707070000000
2

Si      0.000000000000000      0.000000000000000      0.000000000000000
Si      0.000000000000000      0.000000000000000      2.313131310000000
2

Si      0.000000000000000      0.000000000000000      0.000000000000000
Si      0.000000000000000      0.000000000000000      4.575757580000000
