3

Si      2.131976490000000      0.000000000000000      0.000000000000000
Si     -1.947395770000000      0.778350120000000      0.000000000000000
Si     -0.184580720000000     -0.778350120000000      0.000000000000000
3

Si      1.502586880000000      0.000000000000000      0.000000000000000
Si     -0.830799860000000      1.226834090000000      0.000000000000000
Si     -0.671787010000000     -1.226834090000000      0.000000000000000
3

Si      2.090451860000000      0.000000000000000      0.000000000000000
Si     -1.866266450000000      0.886211200000000      0.000000000000000
Si     -0.224185420000000     -0.886211200000000      0.000000000000000
3

Si      1.549994130000000      0.000000000000000      0.000000000000000
Si     -0.884876510000000      1.073740150000000      0.000000000000000
Si     -0.665117620000000     -1.073740150000000      0.000000000000000
3

Si      2.209923440000000      0.000000000000000      0.000000000000000
Si     -2.155479680000000      0.468821060000000      0.000000000000000
Si     -0.054443760000000     -0.468821060000000      0.000000000000000
3

Si      1.732123080000000      0.000000000000000      0.000000000000000
Si     -1.250293460000000      1.099429270000000      0.000000000000000
Si     -0.481829620000000     -1.099429270000000      0.000000000000000
3

Si      1.662003340000000      0.000000000000000      0.000000000000000
Si     -1.151487800000000      1.140662510000000      0.000000000000000
Si     -0.510515540000000     -1.140662510000000      0.000000000000000
3

Si      1.483123330000000      0.000000000000000      0.000000000000000
Si     -0.817421540000000      1.101683100000000      0.000000000000000
Si     -0.665701780000000     -1.101683100000000      0.000000000000000
3

Si      1.857463670000000      0.000000000000000      0.000000000000000
Si     -1.514946250000000      1.018855780000000      0.000000000000000
Si     -0.342517420000000     -1.018855780000000      0.000000000000000
3

Si      1.764472240000000      0.000000000000000      0.000000000000000
Si     -1.323075240000000      1.161941530000000      0.000000000000000
Si     -0.441397000000000     -1.161941530000000      0.000000000000000
