4

Si      2.627056260000000      0.000000000000000      0.000000000000000
Si     -1.828740750000000      1.360355330000000      0.000000000000000
Si     -1.129652150000000     -1.518061260000000      0.315143500000000
Si      0.331336630000000      0.157705930000000     -0.315143500000000
4

Si      2.596001310000000      0.000000000000000      0.000000000000000
Si     -1.515006250000000      1.458533620000000      0.000000000000000
Si     -1.518745300000000     -0.421340640000000      0.707047560000000
Si      0.437750240000000     -1.037192980000000     -0.707047560000000
4

Si      2.773211710000000      0.000000000000000      0.000000000000000
Si     -2.073688280000000      1.173130630000000      0.000000000000000
Si     -1.201374100000000     -0.564533270000000      0.777709820000000
Si      0.501850670000000     -0.608597360000000     -0.777709820000000
4

Si      2.563745550000000      0.000000000000000      0.000000000000000
Si     -1.805139980000000      0.841324770000000      0.000000000000000
Si     -1.152951150000000     -1.324201580000000      0.861803430000000
Si      0.394345580000000      0.482876810000000     -0.861803430000000
4

Si      2.543625670000000      0.000000000000000      0.000000000000000
Si     -2.009449750000000      0.651197400000000      0.000000000000000
Si     -0.795903740000000     -1.427257650000000      0.361053140000000
Si      0.261727820000000      0.776060250000000     -0.361053140000000
4

Si      2.366762080000000      0.000000000000000      0.000000000000000
Si     -1.262335620000000      1.786468680000000      0.000000000000000
Si     -1.503011160000000     -0.596145640000000      0.628148330000000
Si      0.398584700000000     -1.190323030000000     -0.628148330000000
4

Si      2.643495800000000      0.000000000000000      0.000000000000000
Si     -1.618954100000000      1.308095080000000      0.000000000000000
Si     -1.285511700000000     -1.467861170000000      0.540026140000000
Si      0.260970000000000      0.159766090000000     -0.540026140000000
4

Si      2.375480130000000      0.000000000000000      0.000000000000000
Si     -1.465261420000000      1.460042910000000      0.000000000000000
Si     -1.097089370000000     -1.513816140000000      0.637359560000000
Si      0.186870670000000      0.053773230000000     -0.637359560000000
4

Si      2.402366700000000      0.000000000000000      0.000000000000000
Si     -1.644253570000000      1.717828320000000      0.000000000000000
Si     -0.871907430000000     -1.835971650000000      0.321546080000000
Si      0.113794300000000      0.118143330000000     -0.321546080000000
4

Si      2.674468540000000      0.000000000000000      0.000000000000000
Si     -2.133477500000000      0.643254260000000      0.000000000000000
Si     -0.842876500000000     -1.160200620000000      0.406649300000000
Si      0.301885470000000      0.516946360000000     -0.406649300000000
4

Si      2.510839760000000      0.000000000000000      0.000000000000000
Si     -1.556306500000000      1.829204630000000      0.000000000000000
Si     -1.444787190000000     -0.514473650000000      0.370810890000000
Si      0.490253930000000     -1.314730980000000     -0.370810890000000
4

Si      2.354532440000000      0.000000000000000      0.000000000000000
Si     -1.376204660000000      1.889105260000000      0.000000000000000
Si     -1.408636850000000     -0.533226250000000      0.605229430000000
Si      0.430309070000000     -1.355879010000000     -0.605229430000000
4

Si      2.906280000000000      0.000000000000000      0.000000000000000
Si     -1.876824480000000      1.148802410000000      0.000000000000000
Si     -1.507698540000000     -1.173360560000000      0.002279430000000
Si      0.478243030000000      0.024558150000000     -0.002279430000000
4

Si      2.966445540000000      0.000000000000000      0.000000000000000
Si     -1.779899300000000      1.299619340000000      0.000000000000000
Si     -1.677886770000000     -1.060476970000000      0.120873190000000
Si      0.491340530000000     -0.239142370000000     -0.120873190000000
4

Si      2.351414840000000      0.000000000000000      0.000000000000000
Si     -1.675988990000000      0.950492520000000      0.000000000000000
Si     -0.794361310000000     -0.979843820000000      0.990027690000000
Si      0.118935450000000      0.029351300000000     -0.990027690000000
4

Si      2.732055800000000      0.000000000000000      0.000000000000000
Si     -2.058449140000000      1.404775490000000      0.000000000000000
Si     -1.220001570000000     -0.631835330000000      0.832234650000000
Si      0.546394910000000     -0.772940170000000     -0.832234650000000
4

Si      2.175055740000000      0.000000000000000      0.000000000000000
Si     -2.084077170000000      0.257068870000000      0.000000000000000
Si     -0.239000710000000     -1.263505330000000      0.459374640000000
Si      0.148022140000000      1.006436460000000     -0.459374640000000
4

Si      2.616768660000000      0.000000000000000      0.000000000000000
Si     -1.625463400000000      1.636346320000000      0.000000000000000
Si     -1.261152750000000     -1.783228500000000      0.149680440000000
Si      0.269847480000000      0.146882180000000     -0.149680440000000
4

Si      1.955067100000000      0.000000000000000      0.000000000000000
Si     -1.815065870000000      0.624313150000000      0.000000000000000
Si     -0.090344420000000     -0.716464970000000      1.196849700000000
Si     -0.049656800000000      0.092151820000000     -1.196849700000000
4

Si      2.696696990000000      0.000000000000000      0.000000000000000
Si     -2.048376250000000      0.800545320000000      0.000000000000000
Si     -1.026491460000000     -1.385620070000000      0.107873420000000
Si      0.378170720000000      0.585074750000000     -0.107873420000000
4

Si      2.440894350000000      0.000000000000000      0.000000000000000
Si     -1.519470490000000      1.291600980000000      0.000000000000000
Si     -1.275757990000000     -1.313170300000000      0.637009910000000
Si      0.354334140000000      0.021569310000000     -0.637009910000000
4

Si      2.525078460000000      0.000000000000000      0.000000000000000
Si     -2.127821680000000      0.600877660000000      0.000000000000000
Si     -0.571151570000000     -1.312114760000000      0.242862990000000
Si      0.173894790000000      0.711237100000000     -0.242862990000000
4

Si      2.224252040000000      0.000000000000000      0.000000000000000
Si     -1.437396090000000      1.418219660000000      0.000000000000000
Si     -1.034569360000000     -1.244705000000000      0.816728350000000
Si      0.247713420000000     -0.173514650000000     -0.816728350000000
4

Si      1.824681170000000      0.000000000000000      0.000000000000000
Si     -0.607503530000000      1.711369520000000      0.000000000000000
Si     -1.416176060000000     -0.286746530000000      0.725470650000000
Si      0.198998430000000     -1.424622990000000     -0.725470650000000
4

Si      2.447300050000000      0.000000000000000      0.000000000000000
Si     -2.277251530000000      0.870091020000000      0.000000000000000
Si     -0.281012000000000     -1.368650300000000      0.621366280000000
Si      0.110963480000000      0.498559270000000     -0.621366280000000
4

Si      2.396220200000000      0.000000000000000      0.000000000000000
Si     -2.002732610000000      0.717798790000000      0.000000000000000
Si     -0.590159970000000     -1.167450070000000      0.553370330000000
Si      0.196672370000000      0.449651280000000     -0.553370330000000
4

Si      2.094030450000000      0.000000000000000      0.000000000000000
Si     -2.087570450000000      0.093681870000000      0.000000000000000
Si     -0.000439860000000     -0.317902260000000      1.135549130000000
Si     -0.006020150000000      0.224220390000000     -1.135549130000000
4

Si      2.316269720000000      0.000000000000000      0.000000000000000
Si     -1.894062650000000      0.807826530000000      0.000000000000000
Si     -0.599949030000000     -0.723957770000000      1.139787110000000
Si      0.177741960000000     -0.083868750000000     -1.139787110000000
4

Si      2.662423130000000      0.000000000000000      0.000000000000000
Si     -1.414579260000000      1.685497310000000      0.000000000000000
Si     -1.772051270000000     -0.731939900000000      0.464075920000000
Si      0.524207390000000     -0.953557420000000     -0.464075920000000
4

Si      2.595414320000000      0.000000000000000      0.000000000000000
Si     -2.031142400000000      1.288508010000000      0.000000000000000
Si     -1.173589780000000     -0.684164800000000      0.813945490000000
Si      0.609317870000000     -0.604343200000000     -0.813945490000000
4

Si      2.598261310000000      0.000000000000000      0.000000000000000
Si     -1.676524920000000      1.688812840000000      0.000000000000000
Si     -1.061172520000000     -1.808210580000000      0.333477340000000
Si      0.139436130000000      0.119397740000000     -0.333477340000000
4

Si      2.924132240000000      0.000000000000000      0.000000000000000
Si     -1.855582910000000      0.950751610000000      0.000000000000000
Si     -1.542958180000000     -1.112967390000000      0.190971630000000
Si      0.474408850000000      0.162215780000000     -0.190971630000000
4

Si      2.672340010000000      0.000000000000000      0.000000000000000
Si     -1.982187940000000      0.831486080000000      0.000000000000000
Si     -1.030598200000000     -1.095469180000000      0.628488960000000
Si      0.340446130000000      0.263983100000000     -0.628488960000000
4

Si      1.945599070000000      0.000000000000000      0.000000000000000
Si     -0.813877300000000      1.513788270000000      0.000000000000000
Si     -0.925234240000000     -0.831398800000000      0.995527200000000
Si     -0.206487540000000     -0.682389470000000     -0.995527200000000
4

Si      2.413949630000000      0.000000000000000      0.000000000000000
Si     -2.279112810000000      0.443738170000000      0.000000000000000
Si     -0.234714910000000     -1.216896360000000      0.488192400000000
Si      0.099878080000000      0.773158190000000     -0.488192400000000
4

Si      2.613600970000000      0.000000000000000      0.000000000000000
Si     -1.565634310000000      1.117722640000000      0.000000000000000
Si     -1.339410000000000     -1.321723220000000      0.359692630000000
Si      0.291443350000000      0.204000580000000     -0.359692630000000
4

Si      2.545359620000000      0.000000000000000      0.000000000000000
Si     -1.461880560000000      1.905518400000000      0.000000000000000
Si     -1.625155430000000     -0.557475910000000      0.275915810000000
Si      0.541676370000000     -1.348042500000000     -0.275915810000000
4

Si      2.451671380000000      0.000000000000000      0.000000000000000
Si     -2.049526630000000      1.213962620000000      0.000000000000000
Si     -0.849366110000000     -0.585869130000000      1.004274460000000
Si      0.447221360000000     -0.628093490000000     -1.004274460000000
4

Si      2.581147020000000      0.000000000000000      0.000000000000000
Si     -1.391926670000000      1.397648650000000      0.000000000000000
Si     -1.638558830000000     -0.639541240000000      0.592104100000000
Si      0.449338480000000     -0.758107400000000     -0.592104100000000
4

Si      2.560006190000000      0.000000000000000      0.000000000000000
Si     -1.604443280000000      1.752563500000000      0.000000000000000
Si     -1.070791800000000     -1.859708740000000      0.256178080000000
Si      0.115228880000000      0.107145250000000     -0.256178080000000
4

Si      1.793177050000000      0.000000000000000      0.000000000000000
Si     -1.305708890000000      1.200023480000000      0.000000000000000
Si     -0.188469930000000     -0.759083850000000      1.226367490000000
Si     -0.298998230000000     -0.440939630000000     -1.226367490000000
4

Si      2.037201180000000      0.000000000000000      0.000000000000000
Si     -1.400414210000000      1.132844760000000      0.000000000000000
Si     -0.645586590000000     -0.868193190000000      1.091934890000000
Si      0.008799620000000     -0.264651570000000     -1.091934890000000
4

Si      2.616366420000000      0.000000000000000      0.000000000000000
Si     -1.719553340000000      1.393397600000000      0.000000000000000
Si     -1.417570920000000     -0.916570640000000      0.738599480000000
Si      0.520757850000000     -0.476826960000000     -0.738599480000000
4

Si      2.601289600000000      0.000000000000000      0.000000000000000
Si     -1.700537260000000      1.090723180000000      0.000000000000000
Si     -1.177805650000000     -1.011005410000000      0.762869100000000
Si      0.277053320000000     -0.079717770000000     -0.762869100000000
4

Si      2.522679680000000      0.000000000000000      0.000000000000000
Si     -1.726700800000000      0.759252200000000      0.000000000000000
Si     -1.154423550000000     -1.145756210000000      0.545997630000000
Si      0.358444660000000      0.386504010000000     -0.545997630000000
4

Si      2.676589840000000      0.000000000000000      0.000000000000000
Si     -1.689643980000000      1.214580950000000      0.000000000000000
Si     -1.305661790000000     -1.234133250000000      0.559969760000000
Si      0.318715930000000      0.019552300000000     -0.559969760000000
4

Si      2.256405430000000      0.000000000000000      0.000000000000000
Si     -1.517974500000000      1.474407310000000      0.000000000000000
Si     -0.919440660000000     -1.371122520000000      0.899868620000000
Si      0.181009730000000     -0.103284790000000     -0.899868620000000
4

Si      2.517988700000000      0.000000000000000      0.000000000000000
Si     -1.605707610000000      1.211316610000000      0.000000000000000
Si     -1.214896120000000     -0.852250950000000      0.893138910000000
Si      0.302615030000000     -0.359065660000000     -0.893138910000000
4

Si      2.546377730000000      0.000000000000000      0.000000000000000
Si     -2.179839710000000      0.542048940000000      0.000000000000000
Si     -0.546033110000000     -1.232481790000000      0.015934390000000
Si      0.179495100000000      0.690432850000000     -0.015934390000000
4

Si      2.076114310000000      0.000000000000000      0.000000000000000
Si     -1.211480230000000      1.360320720000000      0.000000000000000
Si     -0.873197090000000     -0.880022540000000      1.101224740000000
Si      0.008563000000000     -0.480298190000000     -1.101224740000000
4

Si      2.644978520000000      0.000000000000000      0.000000000000000
Si     -2.091977890000000      1.106329440000000      0.000000000000000
Si     -0.819491460000000     -1.497832120000000      0.389914300000000
Si      0.266490830000000      0.391502680000000     -0.389914300000000
4

Si      2.272922960000000      0.000000000000000      0.000000000000000
Si     -1.343094370000000      1.809301780000000      0.000000000000000
Si     -1.088695320000000     -1.709166240000000      0.522612060000000
Si      0.158866720000000     -0.100135540000000     -0.522612060000000
4

Si      2.457111500000000      0.000000000000000      0.000000000000000
Si     -1.628211460000000      1.246077440000000      0.000000000000000
Si     -1.010495080000000     -1.081403010000000      0.974331600000000
Si      0.181595040000000     -0.164674420000000     -0.974331600000000
4

Si      2.711267750000000      0.000000000000000      0.000000000000000
Si     -1.910657220000000      1.896689080000000      0.000000000000000
Si      0.688187600000000     -1.419627680000000      0.114777480000000
Si     -1.488798130000000     -0.477061410000000     -0.114777480000000
4

Si      2.556827250000000      0.000000000000000      0.000000000000000
Si     -1.862514770000000      0.831489550000000      0.000000000000000
Si     -0.983329970000000     -0.985771350000000      0.799732750000000
Si      0.289017490000000      0.154281800000000     -0.799732750000000
4

Si      2.578206790000000      0.000000000000000      0.000000000000000
Si     -1.987719480000000      1.415339840000000      0.000000000000000
Si     -0.742178370000000     -1.746896880000000      0.323703870000000
Si      0.151691060000000      0.331557040000000     -0.323703870000000
4

Si      2.375139680000000      0.000000000000000      0.000000000000000
Si     -2.157701990000000      0.819479820000000      0.000000000000000
Si     -0.311955310000000     -1.188414300000000      0.929668810000000
Si      0.094517610000000      0.368934480000000     -0.929668810000000
4

Si      2.632447800000000      0.000000000000000      0.000000000000000
Si     -1.683801740000000      1.100874410000000      0.000000000000000
Si     -1.326105480000000     -1.324562020000000      0.453652290000000
Si      0.377459420000000      0.223687610000000     -0.453652290000000
4

Si      2.471266310000000      0.000000000000000      0.000000000000000
Si     -1.425708960000000      1.417676650000000      0.000000000000000
Si     -1.289961330000000     -0.956355700000000      0.753747380000000
Si      0.244403990000000     -0.461320950000000     -0.753747380000000
4

Si      2.063109840000000      0.000000000000000      0.000000000000000
Si     -1.908372660000000      0.589947650000000      0.000000000000000
Si     -0.047793440000000     -0.394768170000000      1.067173020000000
Si     -0.106943750000000     -0.195179490000000     -1.067173020000000
4

Si      2.904568450000000      0.000000000000000      0.000000000000000
Si     -1.597656710000000      1.595636320000000      0.000000000000000
Si     -1.864446750000000     -0.769702370000000      0.004094810000000
Si      0.557535010000000     -0.825933940000000     -0.004094810000000
4

Si      2.373280370000000      0.000000000000000      0.000000000000000
Si     -2.008486210000000      1.164822220000000      0.000000000000000
Si     -0.638434400000000     -1.528573810000000      0.600553470000000
Si      0.273640250000000      0.363751590000000     -0.600553470000000
4

Si      2.625778840000000      0.000000000000000      0.000000000000000
Si     -1.982364810000000      0.795893400000000      0.000000000000000
Si     -0.942737410000000     -1.425537930000000      0.162803590000000
Si      0.299323380000000      0.629644530000000     -0.162803590000000
4

Si      2.722694740000000      0.000000000000000      0.000000000000000
Si     -1.651887160000000      1.206114040000000      0.000000000000000
Si     -1.446343240000000     -1.247397860000000      0.041419290000000
Si      0.375535670000000      0.041283810000000     -0.041419290000000
4

Si      1.646629670000000      0.000000000000000      0.000000000000000
Si     -1.284640290000000      1.009785520000000      0.000000000000000
Si     -0.271310420000000     -0.797008860000000      1.176599680000000
Si     -0.090678960000000     -0.212776660000000     -1.176599680000000
4

Si      2.704137670000000      0.000000000000000      0.000000000000000
Si     -2.024877620000000      1.352504300000000      0.000000000000000
Si     -0.927228660000000     -1.746811610000000      0.219141320000000
Si      0.247968610000000      0.394307310000000     -0.219141320000000
4

Si      2.555346180000000      0.000000000000000      0.000000000000000
Si     -1.797935870000000      1.407915120000000      0.000000000000000
Si     -0.962298860000000     -1.737116370000000      0.260903840000000
Si      0.204888550000000      0.329201250000000     -0.260903840000000
4

Si      2.562013550000000      0.000000000000000      0.000000000000000
Si     -1.822461010000000      0.998841350000000      0.000000000000000
Si     -1.171629640000000     -1.203095700000000      0.628051160000000
Si      0.432077100000000      0.204254350000000     -0.628051160000000
4

Si      2.317083660000000      0.000000000000000      0.000000000000000
Si     -1.965184590000000      0.526610470000000      0.000000000000000
Si     -0.564526460000000     -1.079506150000000      1.161936460000000
Si      0.212627390000000      0.552895680000000     -1.161936460000000
4

Si      2.456132630000000      0.000000000000000      0.000000000000000
Si     -1.721732370000000      1.317664320000000      0.000000000000000
Si     -0.953528510000000     -1.395101370000000      0.797303720000000
Si      0.219128260000000      0.077437050000000     -0.797303720000000
4

Si      2.568434920000000      0.000000000000000      0.000000000000000
Si     -2.143265510000000      0.744465080000000      0.000000000000000
Si     -0.786891600000000     -1.058278290000000      0.751272510000000
Si      0.361722190000000      0.313813200000000     -0.751272510000000
4

Si      2.034379550000000      0.000000000000000      0.000000000000000
Si     -1.978915500000000      0.249173900000000      0.000000000000000
Si     -0.017066190000000     -0.718317210000000      1.129003410000000
Si     -0.038397860000000      0.469143310000000     -1.129003410000000
4

Si      2.692022810000000      0.000000000000000      0.000000000000000
Si     -1.738553980000000      1.719225040000000      0.000000000000000
Si     -1.547589300000000     -0.614920010000000      0.460368770000000
Si      0.594120470000000     -1.104305030000000     -0.460368770000000
4

Si      2.291241130000000      0.000000000000000      0.000000000000000
Si     -1.352883690000000      1.664875920000000      0.000000000000000
Si     -0.966552610000000     -1.601984000000000      0.845404280000000
Si      0.028195180000000     -0.062891920000000     -0.845404280000000
4

Si      1.976978200000000      0.000000000000000      0.000000000000000
Si     -0.355956490000000      1.744226080000000      0.000000000000000
Si     -1.654804720000000     -0.336332820000000      0.482740250000000
Si      0.033783010000000     -1.407893260000000     -0.482740250000000
4

Si      2.453612690000000      0.000000000000000      0.000000000000000
Si     -1.842493750000000      1.528812380000000      0.000000000000000
Si     -0.746717840000000     -1.847893880000000      0.346234680000000
Si      0.135598910000000      0.319081510000000     -0.346234680000000
4

Si      1.601833640000000      0.000000000000000      0.000000000000000
Si     -0.752645230000000      1.247253230000000      0.000000000000000
Si     -0.791550670000000     -0.406832550000000      1.125656030000000
Si     -0.057637730000000     -0.840420680000000     -1.125656030000000
4

Si      2.916644200000000      0.000000000000000      0.000000000000000
Si     -1.591228540000000      1.584815090000000      0.000000000000000
Si     -1.909623960000000     -0.757124910000000      0.017979220000000
Si      0.584208310000000     -0.827690170000000     -0.017979220000000
4

Si      2.637076920000000      0.000000000000000      0.000000000000000
Si     -1.761759820000000      1.314473200000000      0.000000000000000
Si     -1.163171770000000     -1.397051930000000      0.478244940000000
Si      0.287854660000000      0.082578730000000     -0.478244940000000
4

Si      2.308318240000000      0.000000000000000      0.000000000000000
Si     -1.517333500000000      0.889554890000000      0.000000000000000
Si     -0.862501630000000     -0.739924400000000      1.051422920000000
Si      0.071516890000000     -0.149630480000000     -1.051422920000000
4

Si      2.137977570000000      0.000000000000000      0.000000000000000
Si     -1.569135400000000      0.993387480000000      0.000000000000000
Si     -0.635900290000000     -0.636220780000000      1.311276160000000
Si      0.067058120000000     -0.357166700000000     -1.311276160000000
4

Si      2.579711150000000      0.000000000000000      0.000000000000000
Si     -1.662127810000000      1.748341100000000      0.000000000000000
Si     -1.619834970000000     -0.610129540000000      0.064079920000000
Si      0.702251630000000     -1.138211570000000     -0.064079920000000
4

Si      2.641829900000000      0.000000000000000      0.000000000000000
Si     -1.526689700000000      1.428897510000000      0.000000000000000
Si     -1.329810630000000     -1.493299220000000      0.566805060000000
Si      0.214670440000000      0.064401720000000     -0.566805060000000
4

Si      1.787790700000000      0.000000000000000      0.000000000000000
Si     -1.741966140000000      0.231252490000000      0.000000000000000
Si     -0.119727770000000     -1.455643840000000      0.186853350000000
Si      0.073903220000000      1.224391350000000     -0.186853350000000
4

Si      2.116188410000000      0.000000000000000      0.000000000000000
Si     -1.238344110000000      1.158825560000000      0.000000000000000
Si     -0.889576410000000     -0.796521810000000      1.097662350000000
Si      0.011732110000000     -0.362303750000000     -1.097662350000000
4

Si      2.768324660000000      0.000000000000000      0.000000000000000
Si     -1.492821210000000      1.307456440000000      0.000000000000000
Si     -1.677044370000000     -0.924764050000000      0.071878060000000
Si      0.401540930000000     -0.382692390000000     -0.071878060000000
4

Si      1.782637440000000      0.000000000000000      0.000000000000000
Si     -1.184026720000000      1.180234970000000      0.000000000000000
Si     -0.269386830000000     -0.732395530000000      1.194579920000000
Si     -0.329223890000000     -0.447839440000000     -1.194579920000000
4

Si      2.145984610000000      0.000000000000000      0.000000000000000
Si     -0.999916630000000      1.844065630000000      0.000000000000000
Si     -1.112407890000000     -1.508849380000000      0.737158580000000
Si     -0.033660100000000     -0.335216250000000     -0.737158580000000
4

Si      1.801824420000000      0.000000000000000      0.000000000000000
Si     -1.344472320000000      1.087485020000000      0.000000000000000
Si     -0.411264720000000     -0.643601100000000      1.444190360000000
Si     -0.046087380000000     -0.443883930000000     -1.444190360000000
4

Si      2.698846790000000      0.000000000000000      0.000000000000000
Si     -1.852780620000000      1.595556430000000      0.000000000000000
Si     -1.464152280000000     -0.739290570000000      0.558586600000000
Si      0.618086100000000     -0.856265850000000     -0.558586600000000
