5

Si      2.705414530000000      0.000000000000000      0.000000000000000
Si     -1.353560070000000      1.666362500000000      0.000000000000000
Si     -1.564964450000000     -1.195319070000000      0.006161100000000
Si      0.538844410000000     -0.463704090000000      1.041599550000000
Si     -0.325734410000000     -0.007339340000000     -1.047760650000000
5

Si      2.500433180000000      0.000000000000000      0.000000000000000
Si     -2.029924150000000      1.173446880000000      0.000000000000000
Si     -1.668472100000000     -0.958214870000000      0.955097180000000
Si      0.845197180000000     -1.065082430000000     -1.070086570000000
Si      0.352765890000000      0.849850430000000      0.114989400000000
5

Si      2.994183840000000      0.000000000000000      0.000000000000000
Si     -1.744227650000000      1.309626420000000      0.000000000000000
Si     -1.347292790000000     -0.748169390000000      0.690513880000000
Si     -0.685895300000000     -0.515413850000000     -1.311055790000000
Si      0.783231900000000     -0.046043180000000      0.620541900000000
5

Si      2.319969900000000      0.000000000000000      0.000000000000000
Si     -2.008431260000000      0.948943440000000      0.000000000000000
Si     -0.508753790000000     -0.054477540000000      1.615163480000000
Si     -0.334434630000000      0.262060160000000     -1.549317540000000
Si      0.531649770000000     -1.156526060000000     -0.065845930000000
5

Si      2.525425600000000      0.000000000000000      0.000000000000000
Si     -1.644892720000000      1.482346700000000      0.000000000000000
Si     -1.844903530000000     -0.511960770000000      1.091413250000000
Si      0.858878020000000     -0.872749640000000     -1.435263810000000
Si      0.105492630000000     -0.097636290000000      0.343850560000000
5

Si      2.411621180000000      0.000000000000000      0.000000000000000
Si     -0.400319610000000      2.360882670000000      0.000000000000000
Si     -2.105467670000000     -0.867828950000000      0.595305340000000
Si      0.082797980000000     -1.717176320000000     -0.976718880000000
Si      0.011368110000000      0.224122600000000      0.381413550000000
5

Si      2.252129430000000      0.000000000000000      0.000000000000000
Si     -1.198710950000000      1.586994730000000      0.000000000000000
Si     -1.484858780000000     -0.869843620000000      0.130303240000000
Si      0.323869500000000     -0.802233450000000     -1.216882430000000
Si      0.107570790000000      0.085082340000000      1.086579200000000
5

Si      2.572873050000000      0.000000000000000      0.000000000000000
Si     -0.989186370000000      2.216097040000000      0.000000000000000
Si     -0.107944380000000     -1.659407840000000      0.935519350000000
Si     -1.669609100000000     -0.766284380000000     -0.277540700000000
Si      0.193866790000000      0.209595180000000     -0.657978650000000
5

Si      2.170206750000000      0.000000000000000      0.000000000000000
Si     -1.370981630000000      1.652573640000000      0.000000000000000
Si      0.722467650000000     -1.803780400000000      0.698944080000000
Si     -1.876715700000000     -0.611939000000000      0.595199310000000
Si      0.355022930000000      0.763145760000000     -1.294143390000000
5

Si      2.487962440000000      0.000000000000000      0.000000000000000
Si      0.564928670000000      2.323532960000000      0.000000000000000
Si     -1.112969640000000     -2.017421540000000      0.126933440000000
Si     -2.138233730000000     -0.249800700000000     -0.493753990000000
Si      0.198312250000000     -0.056310720000000      0.366820550000000
5

Si      2.627274380000000      0.000000000000000      0.000000000000000
Si     -1.474426060000000      2.121811480000000      0.000000000000000
Si     -1.639794130000000      0.058387240000000      1.347923500000000
Si      0.947829220000000     -0.626451680000000     -1.541325990000000
Si     -0.460883420000000     -1.553747040000000      0.193402500000000
5

Si      2.676676390000000      0.000000000000000      0.000000000000000
Si     -0.736467160000000      2.214567930000000      0.000000000000000
Si     -0.383842250000000     -2.131052300000000      0.253651710000000
Si     -1.820741700000000     -0.193861330000000      0.128591270000000
Si      0.264374720000000      0.110345700000000     -0.382242980000000
5

Si      2.452944170000000      0.000000000000000      0.000000000000000
Si     -0.921325130000000      2.090103190000000      0.000000000000000
Si     -2.096770530000000      0.079487370000000      0.629681440000000
Si      0.259713890000000     -1.590080530000000     -1.372623900000000
Si      0.305437590000000     -0.579510030000000      0.742942460000000
5

Si      2.692874580000000      0.000000000000000      0.000000000000000
Si     -1.882061560000000      1.447914860000000      0.000000000000000
Si     -1.189562030000000     -0.890049290000000      0.894700970000000
Si     -0.063160820000000     -1.339637700000000     -1.041501520000000
Si      0.441909840000000      0.781772120000000      0.146800550000000
5

Si      2.192377430000000      0.000000000000000      0.000000000000000
Si     -1.860141840000000      0.583928180000000      0.000000000000000
Si     -0.768033980000000     -0.759445560000000      1.410696240000000
Si      0.251303380000000      1.254578690000000     -0.663864920000000
Si      0.184495010000000     -1.079061320000000     -0.746831320000000
5

Si      2.425440420000000      0.000000000000000      0.000000000000000
Si     -1.303549110000000      2.009154280000000      0.000000000000000
Si      0.796835310000000     -1.877409190000000      0.266956330000000
Si     -1.348132570000000     -0.122284300000000     -1.304769260000000
Si     -0.570594040000000     -0.009460790000000      1.037812930000000
5

Si      2.767134700000000      0.000000000000000      0.000000000000000
Si     -1.452878230000000      1.334127090000000      0.000000000000000
Si     -1.255520750000000     -1.263688830000000      0.426545400000000
Si     -0.653107970000000     -0.157505280000000     -1.543372700000000
Si      0.594372260000000      0.087067020000000      1.116827300000000
5

Si      2.328101650000000      0.000000000000000      0.000000000000000
Si      0.267637510000000      2.297609470000000      0.000000000000000
Si     -2.245462540000000     -0.423634130000000      0.134771480000000
Si     -0.377696380000000     -2.002761940000000     -0.214107990000000
Si      0.027419760000000      0.128786610000000      0.079336500000000
5

Si      2.661495670000000      0.000000000000000      0.000000000000000
Si     -0.694190070000000      2.476199650000000      0.000000000000000
Si     -0.587258320000000     -2.445941180000000      0.319917700000000
Si     -1.697877900000000     -0.427131480000000     -0.145713410000000
Si      0.317830620000000      0.396873020000000     -0.174204290000000
5

Si      2.314983770000000      0.000000000000000      0.000000000000000
Si     -1.133845620000000      1.916419470000000      0.000000000000000
Si     -1.955916970000000     -0.353274220000000      0.008143130000000
Si      0.620090260000000     -1.213140350000000      1.088901130000000
Si      0.154688560000000     -0.350004900000000     -1.097044250000000
5

Si      2.606930650000000      0.000000000000000      0.000000000000000
Si     -0.708010970000000      2.377777270000000      0.000000000000000
Si     -0.269404990000000     -2.077557480000000      0.223288620000000
Si     -1.900353070000000     -0.476400820000000      0.372892350000000
Si      0.270838370000000      0.176181030000000     -0.596180970000000
5

Si      2.896305540000000      0.000000000000000      0.000000000000000
Si     -0.341144160000000      2.244385700000000      0.000000000000000
Si     -1.533770710000000     -1.473697780000000      0.554417730000000
Si     -1.818913050000000      0.505111500000000     -0.602112160000000
Si      0.797522380000000     -1.275799420000000      0.047694430000000
5

Si      2.521991550000000      0.000000000000000      0.000000000000000
Si     -0.852300300000000      1.648827240000000      0.000000000000000
Si     -1.643012120000000     -0.400900940000000      0.577725170000000
Si     -0.449107080000000     -0.927048370000000     -1.350345520000000
Si      0.422427960000000     -0.320877920000000      0.772620350000000
5

Si      2.358624680000000      0.000000000000000      0.000000000000000
Si     -1.935940340000000      1.325735820000000      0.000000000000000
Si     -1.319301820000000     -0.856429480000000      1.026526150000000
Si      0.484380210000000     -1.406339890000000     -0.413866470000000
Si      0.412237280000000      0.937033550000000     -0.612659680000000
5

Si      2.365521430000000      0.000000000000000      0.000000000000000
Si     -1.824334260000000      1.475223030000000      0.000000000000000
Si      0.583342000000000     -1.640588340000000      0.582871730000000
Si     -1.334245660000000     -0.764388310000000     -0.244099420000000
Si      0.209716490000000      0.929753620000000     -0.338772310000000
5

Si      2.676682450000000      0.000000000000000      0.000000000000000
Si     -1.516129440000000      1.719465360000000      0.000000000000000
Si     -1.805915340000000     -0.430082840000000      0.365655850000000
Si      0.570798890000000     -0.886040360000000      0.942132400000000
Si      0.074563430000000     -0.403342160000000     -1.307788250000000
5

Si      2.430667580000000      0.000000000000000      0.000000000000000
Si      0.086547590000000      2.378100530000000      0.000000000000000
Si     -1.601428800000000     -1.402843190000000      0.674074300000000
Si      0.630176540000000     -1.641016530000000     -0.252283400000000
Si     -1.545962920000000      0.665759200000000     -0.421790890000000
5

Si      2.677627070000000      0.000000000000000      0.000000000000000
Si     -0.379893890000000      2.278314180000000      0.000000000000000
Si     -2.196607130000000     -0.450556040000000      0.255505590000000
Si     -0.321965670000000     -1.797573340000000     -0.594570980000000
Si      0.220839620000000     -0.030184800000000      0.339065390000000
5

Si      2.871068180000000      0.000000000000000      0.000000000000000
Si     -1.462069630000000      2.312223540000000      0.000000000000000
Si      0.119611220000000     -2.333782020000000      0.485684030000000
Si     -1.936437710000000     -0.036112870000000     -0.339306870000000
Si      0.407827950000000      0.057671350000000     -0.146377160000000
5

Si      2.936980580000000      0.000000000000000      0.000000000000000
Si     -0.995391710000000      1.842714590000000      0.000000000000000
Si     -0.805266350000000     -1.345970040000000      0.990061220000000
Si     -1.651312610000000     -0.144247200000000     -0.808340780000000
Si      0.514990090000000     -0.352497340000000     -0.181720430000000
5

Si      2.340683200000000      0.000000000000000      0.000000000000000
Si     -1.923714780000000      1.046744870000000      0.000000000000000
Si      0.849314690000000      0.067122240000000      1.728692860000000
Si     -0.658604490000000     -0.115228530000000     -1.796566710000000
Si     -0.607678620000000     -0.998638580000000      0.067873850000000
5

Si      2.475936380000000      0.000000000000000      0.000000000000000
Si     -1.344021770000000      1.583848780000000      0.000000000000000
Si     -1.859449500000000     -0.591623700000000      0.265816170000000
Si      0.255963190000000     -0.720196470000000     -1.295348890000000
Si      0.471571710000000     -0.272028610000000      1.029532720000000
5

Si      2.544013610000000      0.000000000000000      0.000000000000000
Si     -1.837378160000000      1.463037610000000      0.000000000000000
Si      0.497823160000000     -1.241542090000000      1.471642750000000
Si     -1.480633860000000     -0.576318400000000     -1.060694140000000
Si      0.276175240000000      0.354822870000000     -0.410948610000000
5

Si      2.557852350000000      0.000000000000000      0.000000000000000
Si     -2.289413430000000      0.811449540000000      0.000000000000000
Si      0.735564660000000     -0.372993820000000      1.516770830000000
Si     -0.096969510000000      0.638071110000000     -1.535403230000000
Si     -0.907034060000000     -1.076526820000000      0.018632400000000
5

Si      2.856324710000000      0.000000000000000      0.000000000000000
Si     -1.286270720000000      1.865032230000000      0.000000000000000
Si     -1.453084620000000     -1.010375480000000      1.003042300000000
Si     -0.943542170000000     -0.264043430000000     -1.200051030000000
Si      0.826572800000000     -0.590613330000000      0.197008730000000
5

Si      3.013593950000000      0.000000000000000      0.000000000000000
Si     -1.754709210000000      1.361249330000000      0.000000000000000
Si     -1.486785730000000     -0.772081620000000      0.877127900000000
Si     -0.603578160000000     -0.031656410000000     -1.313674720000000
Si      0.831479150000000     -0.557511300000000      0.436546820000000
5

Si      2.613337630000000      0.000000000000000      0.000000000000000
Si     -1.771862750000000      1.567642970000000      0.000000000000000
Si     -2.221311750000000     -0.766296960000000      0.179432520000000
Si      0.925543150000000     -1.737897640000000     -0.578917170000000
Si      0.454293720000000      0.936551630000000      0.399484660000000
5

Si      2.493744860000000      0.000000000000000      0.000000000000000
Si     -1.607873980000000      1.712258690000000      0.000000000000000
Si     -1.742874280000000     -0.972044400000000      1.033526860000000
Si      0.429153690000000     -1.365569510000000     -0.132112000000000
Si      0.427849700000000      0.625355210000000     -0.901414860000000
5

Si      2.891283920000000      0.000000000000000      0.000000000000000
Si     -1.514891900000000      2.163330830000000      0.000000000000000
Si     -2.001274120000000     -0.167517800000000      0.608867850000000
Si     -0.298014790000000     -1.564665300000000      0.619455500000000
Si      0.922896890000000     -0.431147730000000     -1.228323350000000
5

Si      2.574965740000000      0.000000000000000      0.000000000000000
Si     -1.704422250000000      1.667177980000000      0.000000000000000
Si     -1.865309260000000     -0.642541970000000      0.525791390000000
Si      0.827452580000000     -1.484462430000000      0.384054930000000
Si      0.167313200000000      0.459826410000000     -0.909846320000000
5

Si      2.601564660000000      0.000000000000000      0.000000000000000
Si     -0.793991460000000      1.817594060000000      0.000000000000000
Si     -0.874882960000000     -1.678522620000000      0.250433120000000
Si     -1.446383870000000     -0.104862170000000     -1.016839310000000
Si      0.513693630000000     -0.034209260000000      0.766406190000000
5

Si      2.473964920000000      0.000000000000000      0.000000000000000
Si     -1.824669270000000      1.022805070000000      0.000000000000000
Si     -1.247047050000000     -1.111399020000000      0.100593740000000
Si      0.358050520000000      0.258237840000000     -1.176639460000000
Si      0.239700870000000     -0.169643890000000      1.076045720000000
5

Si      2.545900880000000      0.000000000000000      0.000000000000000
Si     -1.104050420000000      1.992596870000000      0.000000000000000
Si     -1.454335970000000     -0.083742270000000      1.326558870000000
Si      0.977997000000000     -1.621424250000000     -0.482716830000000
Si     -0.965511490000000     -0.287430350000000     -0.843842040000000
5

Si      2.812210110000000      0.000000000000000      0.000000000000000
Si     -0.904658800000000      2.132991570000000      0.000000000000000
Si     -1.834438110000000      0.322242390000000      1.249614050000000
Si     -1.148136970000000     -1.533856730000000     -0.164523140000000
Si      1.075023760000000     -0.921377220000000     -1.085090920000000
5

Si      2.290662230000000      0.000000000000000      0.000000000000000
Si     -0.166783470000000      2.213304330000000      0.000000000000000
Si      0.048226540000000     -2.191108070000000      0.027811000000000
Si     -2.106237800000000     -0.048501970000000     -0.510547410000000
Si     -0.065867500000000      0.026305710000000      0.482736410000000
5

Si      2.558405790000000      0.000000000000000      0.000000000000000
Si     -1.481278110000000      1.803029340000000      0.000000000000000
Si     -1.678259230000000     -0.677594300000000      0.595004110000000
Si      0.294061720000000     -1.750772710000000     -0.457866380000000
Si      0.307069830000000      0.625337670000000     -0.137137730000000
5

Si      2.669377620000000      0.000000000000000      0.000000000000000
Si     -2.017342320000000      1.493034200000000      0.000000000000000
Si     -1.458956550000000     -1.000821230000000      0.332794460000000
Si      0.789007100000000     -1.007846770000000      0.593739550000000
Si      0.017914140000000      0.515633800000000     -0.926534010000000
5

Si      2.540391550000000      0.000000000000000      0.000000000000000
Si     -2.250366750000000      0.866650930000000      0.000000000000000
Si      0.438234160000000     -1.224455550000000      1.710008680000000
Si     -0.920478220000000     -0.027912040000000     -1.852506170000000
Si      0.192219260000000      0.385716670000000      0.142497490000000
5

Si      2.700378810000000      0.000000000000000      0.000000000000000
Si     -1.206241650000000      1.875656640000000      0.000000000000000
Si     -1.495681870000000     -1.206031660000000      0.537880100000000
Si     -0.507764470000000      0.175108680000000     -1.273646170000000
Si      0.509309170000000     -0.844733660000000      0.735766070000000
5

Si      2.642416760000000      0.000000000000000      0.000000000000000
Si     -2.194412930000000      0.485958390000000      0.000000000000000
Si     -0.037729520000000     -1.194277050000000      1.887064610000000
Si     -0.632631150000000      0.490529890000000     -2.012926460000000
Si      0.222356850000000      0.217788770000000      0.125861850000000
